Version 4
SHEET 1 880 680
WIRE 128 16 64 16
WIRE 272 16 208 16
WIRE 48 144 -16 144
WIRE 48 160 48 144
WIRE 64 160 64 16
WIRE 64 160 48 160
WIRE 144 160 64 160
WIRE 272 176 272 16
WIRE 272 176 208 176
WIRE 144 192 16 192
FLAG 176 288 0
FLAG 176 64 0
FLAG -64 272 0
FLAG -96 144 0
FLAG 16 256 0
SYMBOL Opamps\\UniversalOpamp2 176 176 R0
SYMATTR InstName U1
SYMBOL voltage 176 160 R180
WINDOW 0 24 96 Left 2
WINDOW 3 24 16 Left 2
WINDOW 123 0 0 Left 0
WINDOW 39 0 0 Left 0
SYMATTR InstName V1
SYMATTR Value 15
SYMBOL voltage 176 304 R180
WINDOW 0 24 96 Left 2
WINDOW 3 24 16 Left 2
WINDOW 123 0 0 Left 0
WINDOW 39 0 0 Left 0
SYMATTR InstName V2
SYMATTR Value 15
SYMBOL res 32 176 R90
WINDOW 0 0 56 VBottom 2
WINDOW 3 32 56 VTop 2
SYMATTR InstName R1
SYMATTR Value 10k
SYMBOL cap 0 192 R0
SYMATTR InstName C1
SYMATTR Value 100n
SYMBOL voltage -64 176 R0
WINDOW 123 24 124 Left 2
WINDOW 39 0 0 Left 0
SYMATTR Value2 AC 1
SYMATTR InstName V3
SYMATTR Value SINE(0 4 1k)
SYMBOL res 0 128 R90
WINDOW 0 0 56 VBottom 2
WINDOW 3 32 56 VTop 2
SYMATTR InstName R2
SYMATTR Value 1k
SYMBOL res 224 0 R90
WINDOW 0 0 56 VBottom 2
WINDOW 3 32 56 VTop 2
SYMATTR InstName R3
SYMATTR Value 9k
TEXT 488 56 Left 2 ;exp-6---1)active low pass filter
TEXT 336 152 Left 2 !.ac dec 101 1 100k
