Version 4
SHEET 1 880 680
WIRE 192 48 128 48
WIRE 336 48 272 48
WIRE 112 176 48 176
WIRE 112 192 112 176
WIRE 128 192 128 48
WIRE 128 192 112 192
WIRE 208 192 128 192
WIRE 336 208 336 48
WIRE 336 208 272 208
WIRE 208 224 80 224
FLAG 240 320 0
FLAG 240 96 0
FLAG -32 176 0
FLAG 80 304 0
FLAG 16 304 0
SYMBOL Opamps\\UniversalOpamp2 240 208 R0
SYMATTR InstName U1
SYMBOL voltage 240 192 R180
WINDOW 0 24 96 Left 2
WINDOW 3 24 16 Left 2
WINDOW 123 0 0 Left 0
WINDOW 39 0 0 Left 0
SYMATTR InstName V1
SYMATTR Value 15
SYMBOL voltage 240 336 R180
WINDOW 0 24 96 Left 2
WINDOW 3 24 16 Left 2
WINDOW 123 0 0 Left 0
WINDOW 39 0 0 Left 0
SYMATTR InstName V2
SYMATTR Value 15
SYMBOL res 64 160 R90
WINDOW 0 0 56 VBottom 2
WINDOW 3 32 56 VTop 2
SYMATTR InstName R2
SYMATTR Value 1k
SYMBOL res 288 32 R90
WINDOW 0 0 56 VBottom 2
WINDOW 3 32 56 VTop 2
SYMATTR InstName R3
SYMATTR Value 9k
SYMBOL res 64 208 R0
SYMATTR InstName R1
SYMATTR Value 10k
SYMBOL cap 80 208 R90
WINDOW 0 0 32 VBottom 2
WINDOW 3 32 32 VTop 2
SYMATTR InstName C1
SYMATTR Value 100n
SYMBOL voltage 16 208 R0
WINDOW 123 24 124 Left 2
WINDOW 39 0 0 Left 0
SYMATTR Value2 AC 1
SYMATTR InstName V3
SYMATTR Value SINE(0 4 1k)
TEXT 456 112 Left 2 ;exp-6--1)active high pass filter
TEXT 416 200 Left 2 !.ac dec 101 1 100k
