Version 4
SHEET 1 1032 680
WIRE 288 -16 48 -16
WIRE 48 112 48 -16
WIRE 144 112 48 112
WIRE 288 128 288 -16
WIRE 288 128 272 128
WIRE 144 144 32 144
WIRE 32 192 32 144
FLAG 288 288 0
FLAG 176 240 0
FLAG 32 272 0
FLAG 176 16 0
SYMBOL Opamps\\UniversalOpamp2 176 128 R0
SYMATTR InstName U1
SYMBOL voltage 32 176 R0
WINDOW 123 0 0 Left 0
WINDOW 39 0 0 Left 0
SYMATTR InstName V1
SYMATTR Value SINE(0 4 1k)
SYMBOL voltage 288 192 R0
WINDOW 123 0 0 Left 0
WINDOW 39 0 0 Left 0
SYMATTR InstName V2
SYMATTR Value -2
SYMBOL voltage 176 112 R180
WINDOW 0 24 96 Left 2
WINDOW 3 24 16 Left 2
WINDOW 123 0 0 Left 0
WINDOW 39 0 0 Left 0
SYMATTR InstName V3
SYMATTR Value 15
SYMBOL voltage 176 256 R180
WINDOW 0 24 96 Left 2
WINDOW 3 24 16 Left 2
WINDOW 123 0 0 Left 0
WINDOW 39 0 0 Left 0
SYMATTR InstName V4
SYMATTR Value 15
SYMBOL res 272 112 R0
SYMATTR InstName R1
SYMATTR Value 1k
SYMBOL diode 208 144 R270
WINDOW 0 32 32 VTop 2
WINDOW 3 0 32 VBottom 2
SYMATTR InstName D1
SYMATTR Value 1N4148
TEXT 368 64 Left 2 !.tran 5ms
TEXT 544 72 Left 2 ;Negative clipper with -ve reference
