Version 4
SHEET 1 924 680
WIRE 272 0 112 0
WIRE 112 160 112 0
WIRE 112 160 48 160
WIRE 176 160 112 160
WIRE 272 176 272 0
WIRE 272 176 240 176
WIRE 304 176 272 176
WIRE 176 192 112 192
WIRE 304 208 304 176
WIRE 112 224 112 192
WIRE 112 240 112 224
FLAG 208 288 0
FLAG 304 288 0
FLAG 112 304 0
FLAG -32 160 0
FLAG 208 64 0
SYMBOL Opamps\\UniversalOpamp2 208 176 R0
SYMATTR InstName U1
SYMBOL res 288 192 R0
SYMATTR InstName R1
SYMATTR Value 10k
SYMBOL res 64 144 R90
WINDOW 0 0 56 VBottom 2
WINDOW 3 32 56 VTop 2
SYMATTR InstName R3
SYMATTR Value 10k
SYMBOL voltage 208 304 R180
WINDOW 0 24 96 Left 2
WINDOW 3 24 16 Left 2
WINDOW 123 0 0 Left 0
WINDOW 39 0 0 Left 0
SYMATTR InstName V1
SYMATTR Value 15
SYMBOL voltage 112 208 R0
WINDOW 123 0 0 Left 0
WINDOW 39 0 0 Left 0
SYMATTR InstName V4
SYMATTR Value 3
SYMBOL voltage 208 160 R180
WINDOW 0 24 96 Left 2
WINDOW 3 24 16 Left 2
WINDOW 123 0 0 Left 0
WINDOW 39 0 0 Left 0
SYMATTR InstName V2
SYMATTR Value 15
TEXT 312 136 Left 2 !.tran 5ms
TEXT 632 176 Left 2 ;unity gain amplifier
