Version 4
SHEET 1 1224 680
WIRE 176 0 128 0
WIRE 288 0 256 0
WIRE 672 32 624 32
WIRE 816 32 736 32
WIRE 128 176 128 0
WIRE 176 176 128 176
WIRE 288 192 288 0
WIRE 288 192 240 192
WIRE 496 192 288 192
WIRE 624 192 624 32
WIRE 624 192 576 192
WIRE 688 192 624 192
WIRE 176 208 128 208
WIRE 816 208 816 32
WIRE 816 208 752 208
WIRE 688 224 624 224
WIRE 624 272 624 224
WIRE 288 304 288 272
WIRE 288 304 272 304
WIRE 288 320 288 304
WIRE 128 336 128 208
WIRE 272 336 272 304
WIRE 272 336 128 336
FLAG 208 304 0
FLAG 208 80 0
FLAG 288 400 0
FLAG 64 0 0
FLAG 720 320 0
FLAG 624 352 0
FLAG 720 96 0
SYMBOL voltage 208 320 R180
WINDOW 0 24 96 Left 2
WINDOW 3 24 16 Left 2
WINDOW 123 0 0 Left 0
WINDOW 39 0 0 Left 0
SYMATTR InstName V1
SYMATTR Value 15
SYMBOL voltage 208 176 R180
WINDOW 0 24 96 Left 2
WINDOW 3 24 16 Left 2
WINDOW 123 0 0 Left 0
WINDOW 39 0 0 Left 0
SYMATTR InstName V2
SYMATTR Value 15
SYMBOL res 272 176 R0
SYMATTR InstName R1
SYMATTR Value 30k
SYMBOL res 272 304 R0
SYMATTR InstName R2
SYMATTR Value 30k
SYMBOL res 272 -16 R90
WINDOW 0 0 56 VBottom 2
WINDOW 3 32 56 VTop 2
SYMATTR InstName R3
SYMATTR Value 50k
SYMBOL cap 128 -16 R90
WINDOW 0 0 32 VBottom 2
WINDOW 3 32 32 VTop 2
SYMATTR InstName C1
SYMATTR Value 0.01µ
SYMBOL Opamps\\LT1463 208 128 R0
SYMATTR InstName U1
SYMBOL Opamps\\UniversalOpamp2 720 208 R0
SYMATTR InstName U2
SYMBOL res 592 176 R90
WINDOW 0 0 56 VBottom 2
WINDOW 3 32 56 VTop 2
SYMATTR InstName R4
SYMATTR Value 100k
SYMBOL res 608 256 R0
SYMATTR InstName R5
SYMATTR Value 10k
SYMBOL cap 736 16 R90
WINDOW 0 0 32 VBottom 2
WINDOW 3 32 32 VTop 2
SYMATTR InstName C2
SYMATTR Value 100µ
SYMBOL voltage 720 192 R180
WINDOW 0 24 96 Left 2
WINDOW 3 24 16 Left 2
WINDOW 123 0 0 Left 0
WINDOW 39 0 0 Left 0
SYMATTR InstName V3
SYMATTR Value 15
SYMBOL voltage 720 336 R180
WINDOW 0 24 96 Left 2
WINDOW 3 24 16 Left 2
WINDOW 123 0 0 Left 0
WINDOW 39 0 0 Left 0
SYMATTR InstName V4
SYMATTR Value 15
TEXT 352 112 Left 2 !.tran 10ms
TEXT 920 72 Left 2 ;Triangular wave generator
