Version 4
SHEET 1 880 680
WIRE 96 16 32 16
WIRE -48 160 -48 16
WIRE -48 160 -112 160
WIRE 0 160 -48 160
WIRE 96 176 96 16
WIRE 96 176 64 176
WIRE 128 176 96 176
WIRE 208 176 192 176
WIRE 224 176 208 176
WIRE 240 176 224 176
WIRE 320 176 304 176
WIRE 336 176 320 176
WIRE 352 176 336 176
WIRE 432 176 416 176
WIRE 448 176 432 176
WIRE 528 176 448 176
WIRE 0 192 -64 192
WIRE 224 208 224 176
WIRE 336 208 336 176
WIRE 448 208 448 176
WIRE -64 224 -64 192
WIRE 224 288 224 272
WIRE 336 288 336 272
WIRE 336 288 224 288
WIRE 448 288 448 272
WIRE 448 288 336 288
WIRE -192 320 -192 160
WIRE 528 320 528 176
WIRE 528 320 -192 320
FLAG 32 64 0
FLAG 32 288 0
FLAG -64 224 0
FLAG 336 288 0
SYMBOL Opamps\\LT1493 32 112 R0
SYMATTR InstName U1
SYMBOL voltage 32 304 R180
WINDOW 0 24 96 Left 2
WINDOW 3 24 16 Left 2
WINDOW 123 0 0 Left 0
WINDOW 39 0 0 Left 0
SYMATTR InstName V1
SYMATTR Value 15
SYMBOL voltage 32 160 R180
WINDOW 0 24 96 Left 2
WINDOW 3 24 16 Left 2
WINDOW 123 0 0 Left 0
WINDOW 39 0 0 Left 0
SYMATTR InstName V2
SYMATTR Value 15
SYMBOL res 48 0 R90
WINDOW 0 0 56 VBottom 2
WINDOW 3 32 56 VTop 2
SYMATTR InstName R2
SYMATTR Value 560k
SYMBOL res -96 144 R90
WINDOW 0 0 56 VBottom 2
WINDOW 3 32 56 VTop 2
SYMATTR InstName R5
SYMATTR Value 10k
SYMBOL res 224 160 R90
WINDOW 0 0 56 VBottom 2
WINDOW 3 32 56 VTop 2
SYMATTR InstName R1
SYMATTR Value 10k
SYMBOL res 336 160 R90
WINDOW 0 0 56 VBottom 2
WINDOW 3 32 56 VTop 2
SYMATTR InstName R3
SYMATTR Value 10k
SYMBOL res 448 160 R90
WINDOW 0 0 56 VBottom 2
WINDOW 3 32 56 VTop 2
SYMATTR InstName R4
SYMATTR Value 10k
SYMBOL cap 208 208 R0
SYMATTR InstName C1
SYMATTR Value 0.001µ
SYMBOL cap 320 208 R0
SYMATTR InstName C2
SYMATTR Value 0.001µ
SYMBOL cap 432 208 R0
SYMATTR InstName C3
SYMATTR Value 0.001µ
TEXT 176 48 Left 2 !.tran 0 5ms 0
TEXT 272 -8 Left 2 ;8.1--RC PHASE SHIFT OSCILLATOR USING OP AMP
